*Heading
** Job name: RC_Beam_3Point_Bending Model name: Model-1
** Generated by: Abaqus/CAE 2021.HF6
*Preprint, echo=NO, model=NO, history=NO, contact=NO
**
** PARTS
**
*Part, name=Beam
*Node
      1,         100.,         250.,        1900.
      2,         100.,        -250.,        1900.
      3,         100.,        -250.,        1100.
      4,         100.,         250.,        1100.
      5,        -100.,        -250.,        1900.
      6,        -100.,        -250.,        1100.
      7,        -100.,         250.,        1100.
      8,        -100.,         250.,        1900.
      9,         100.,         250.,        2900.
     10,         100.,        -250.,        2900.
     11,        -100.,         250.,        2900.
     12,        -100.,        -250.,        2900.
     13,        -100.,        -250.,         100.
     14,        -100.,         250.,         100.
     15,        -100.,         250.,           0.
     16,        -100.,        -250.,           0.
     17,         100.,         250.,         100.
     18,         100.,         250.,           0.
     19,         100.,        -250.,           0.
     20,         100.,        -250.,         100.
** ... 14380 like lines cut
*Element, type=C3D8I
   1,  204, 1809, 5377, 1497,    1,   25,  665,  108
   2, 1809, 1810, 5378, 5377,   25,   26,  666,  665
   3, 1810, 1811, 5379, 5378,   26,   27,  667,  666
   4, 1811, 1812, 5380, 5379,   27,   28,  668,  667
   5, 1812, 1813, 5381, 5380,   28,   29,  669,  668
   6, 1813, 1814, 5382, 5381,   29,   30,  670,  669
   7, 1814, 1815, 5383, 5382,   30,   31,  671,  670
   8, 1815, 1816, 5384, 5383,   31,   32,  672,  671
   9, 1816, 1817, 5385, 5384,   32,   33,  673,  672
  10, 1817, 1818, 5386, 5385,   33,   34,  674,  673
  11, 1818, 1819, 5387, 5386,   34,   35,  675,  674
  12, 1819, 1820, 5388, 5387,   35,   36,  676,  675
  13, 1820, 1821, 5389, 5388,   36,   37,  677,  676
  14, 1821, 1822, 5390, 5389,   37,   38,  678,  677
  15, 1822, 1823, 5391, 5390,   38,   39,  679,  678
  16, 1823, 1824, 5392, 5391,   39,   40,  680,  679
  17, 1824,  211, 1653, 5392,   40,    2,   41,  680
  18, 1497, 5377, 5393, 1498,  108,  665,  681,  107
  19, 5377, 5378, 5394, 5393,  665,  666,  682,  681
  20, 5378, 5379, 5395, 5394,  666,  667,  683,  682
** ... 11761 like lines cut
*Nset, nset=_PickedSet8, internal, generate
     1,  14400,      1
*Elset, elset=_PickedSet8, internal, generate
     1,  11781,      1
** Section: Section-Beam
*Solid Section, elset=_PickedSet8, controls=EC-1, material=Concrete_Damage
,
*End Part
**  
*Part, name="Comp Rebar"
*Node
      1,       -1425.,        -120.,           0.
      2,       -1425.,         -20.,           0.
      3,       -1405.,           0.,           0.
      4,        1405.,           0.,           0.
      5,        1425.,         -20.,           0.
      6,        1425.,        -120.,           0.
      7,       -1425.,  -53.3333321,           0.
      8,       -1425.,  -86.6666641,           0.
      9,  -1419.14209,  -5.85786438,           0.
     10,   1375.10632,           0.,           0.
     11,   1345.21277,           0.,           0.
     12,   1315.31909,           0.,           0.
     13,   1285.42554,           0.,           0.
     14,   1255.53186,           0.,           0.
     15,   1225.63831,           0.,           0.
     16,   1195.74463,           0.,           0.
     17,   1165.85107,           0.,           0.
     18,    1135.9574,           0.,           0.
     19,   1106.06384,           0.,           0.
     20,   1076.17017,           0.,           0.
** ... 85 like lines cut
*Element, type=T3D2
1, 2, 7
2, 7, 8
3, 8, 1
4, 2, 9
5, 9, 3
  6,   4,  10
  7,  10,  11
  8,  11,  12
  9,  12,  13
 10,  13,  14
 11,  14,  15
 12,  15,  16
 13,  16,  17
 14,  17,  18
 15,  18,  19
 16,  19,  20
 17,  20,  21
 18,  21,  22
 19,  22,  23
 20,  23,  24
** ... 84 like lines cut
*Nset, nset=_PickedSet10, internal, generate
   1,  105,    1
*Elset, elset=_PickedSet10, internal, generate
   1,  104,    1
** Section: Section-truss10
*Solid Section, elset=_PickedSet10, material=Steel_Rebar
79.,
*End Part
**  
*Part, name=Stirrup
*Node
      1,         -80.,        -205.,           0.
      2,         -60.,        -225.,           0.
      3,          60.,        -225.,           0.
      4,          80.,        -205.,           0.
      5,          80.,         205.,           0.
      6,          60.,         225.,           0.
      7,         -60.,         225.,           0.
      8,         -80.,         205.,           0.
      9,  -74.1421356,  -219.142136,           0.
     10,          36.,        -225.,           0.
     11,          12.,        -225.,           0.
     12,         -12.,        -225.,           0.
     13,         -36.,        -225.,           0.
     14,   74.1421356,  -219.142136,           0.
     15,          80.,      179.375,           0.
     16,          80.,       153.75,           0.
     17,          80.,      128.125,           0.
     18,          80.,        102.5,           0.
     19,          80.,       76.875,           0.
     20,          80.,        51.25,           0.
** ... 30 like lines cut
*Element, type=T3D2
1, 1, 9
2, 9, 2
3,  3, 10
4, 10, 11
5, 11, 12
6, 12, 13
7, 13,  2
 8,  4, 14
 9, 14,  3
10,  5, 15
11, 15, 16
12, 16, 17
13, 17, 18
14, 18, 19
15, 19, 20
16, 20, 21
17, 21, 22
18, 22, 23
19, 23, 24
20, 24, 25
** ... 30 like lines cut
*Nset, nset=_PickedSet9, internal, generate
  1,  50,   1
*Elset, elset=_PickedSet9, internal, generate
  1,  50,   1
** Section: Section-truss10
*Solid Section, elset=_PickedSet9, material=Steel_Rebar
79.,
*End Part
**  
*Part, name=Support
*Node
      1,   -14.205883,  -98.9858246,           0.
      2,  -15.9479494,           0.,           0.
      3,         100.,           0.,           0.
      4,        -100.,           0.,           0.
      5,   96.6996002,   -25.479147,           0.
      6,   87.8562546,  -47.7627335,           0.
      7,   76.2844849,  -64.6581573,           0.
      8,   64.3993835,   -76.503067,           0.
      9,   50.7129211,  -86.1870041,           0.
     10,   32.7516479,  -94.4845505,           0.
     11,   10.2864656,  -99.4695358,           0.
     12,  -13.1610756,  -77.4129028,           0.
     13,   -13.607542,  -57.8617783,           0.
     14,  -14.5561876,  -38.7110977,           0.
     15,  -15.2956123,  -19.4051533,           0.
     16,   6.02355433,           0.,           0.
     17,   28.2970676,           0.,           0.
     18,   50.8810616,           0.,           0.
     19,   74.4265747,           0.,           0.
     20,  -77.9487839,           0.,           0.
** ... 540 like lines cut
*Element, type=C3D8R
  1,  29,  32,   9,   8,  85,  88,  65,  64
  2,  32,  31,  10,   9,  88,  87,  66,  65
  3,  31,  30,  11,  10,  87,  86,  67,  66
  4,  30,  12,   1,  11,  86,  68,  57,  67
  5,  30,  36,  13,  12,  86,  92,  69,  68
  6,  36,  37,  14,  13,  92,  93,  70,  69
  7,  37,  38,  15,  14,  93,  94,  71,  70
  8,  38,  16,   2,  15,  94,  72,  58,  71
  9,  31,  39,  36,  30,  87,  95,  92,  86
 10,  39,  40,  37,  36,  95,  96,  93,  92
 11,  40,  41,  38,  37,  96,  97,  94,  93
 12,  41,  17,  16,  38,  97,  73,  72,  94
 13,  32,  42,  39,  31,  88,  98,  95,  87
 14,  42,  43,  40,  39,  98,  99,  96,  95
 15,  43,  44,  41,  40,  99, 100,  97,  96
 16,  44,  18,  17,  41, 100,  74,  73,  97
 17,  29,  35,  42,  32,  85,  91,  98,  88
 18,  35,  34,  43,  42,  91,  90,  99,  98
 19,  34,  33,  44,  43,  90,  89, 100,  99
 20,  33,  19,  18,  44,  89,  75,  74, 100
** ... 367 like lines cut
*Nset, nset=_PickedSet2, internal, generate
   1,  560,    1
*Elset, elset=_PickedSet2, internal, generate
   1,  387,    1
** Section: Section-Support
*Solid Section, elset=_PickedSet2, material="Steel Elastic"
,
*End Part
**  
*Part, name="Tensile Rebar"
*Node
      1,       -1425.,         300.,           0.
      2,       -1425.,          20.,           0.
      3,       -1405.,           0.,           0.
      4,        1405.,           0.,           0.
      5,        1425.,          20.,           0.
      6,        1425.,         300.,           0.
      7,       -1425.,   51.1111107,           0.
      8,       -1425.,   82.2222214,           0.
      9,       -1425.,   113.333336,           0.
     10,       -1425.,   144.444443,           0.
     11,       -1425.,   175.555557,           0.
     12,       -1425.,   206.666672,           0.
     13,       -1425.,   237.777771,           0.
     14,       -1425.,   268.888885,           0.
     15,  -1419.14209,   5.85786438,           0.
     16,   1375.10632,           0.,           0.
     17,   1345.21277,           0.,           0.
     18,   1315.31909,           0.,           0.
     19,   1285.42554,           0.,           0.
     20,   1255.53186,           0.,           0.
** ... 97 like lines cut
*Element, type=T3D2
 1,  2,  7
 2,  7,  8
 3,  8,  9
 4,  9, 10
 5, 10, 11
 6, 11, 12
 7, 12, 13
 8, 13, 14
 9, 14,  1
10,  2, 15
11, 15,  3
 12,   4,  16
 13,  16,  17
 14,  17,  18
 15,  18,  19
 16,  19,  20
 17,  20,  21
 18,  21,  22
 19,  22,  23
 20,  23,  24
** ... 96 like lines cut
*Nset, nset=_PickedSet9, internal, generate
   1,  117,    1
*Elset, elset=_PickedSet9, internal, generate
   1,  116,    1
** Section: Section-truss20
*Solid Section, elset=_PickedSet9, material=Steel_Rebar
314.,
*End Part
**  
**
** ASSEMBLY
**
*Assembly, name=Assembly
**  
*Instance, name=Beam-1, part=Beam
*End Instance
**  
*Instance, name=Stirrup-1, part=Stirrup
          0.,           0.,        2900.
*End Instance
**  
*Instance, name="Tensile Rebar-1", part="Tensile Rebar"
          0.,        -210.,        1500.
          0.,        -210.,        1500.,           0., -208.999999987312,        1500., 89.9999992730282
*End Instance
**  
*Instance, name=Stirrup-1-lin-2-1, part=Stirrup
          0.,           0.,        2700.
*End Instance
**  
*Instance, name=Stirrup-1-lin-3-1, part=Stirrup
          0.,           0.,        2500.
*End Instance
**  
*Instance, name=Stirrup-1-lin-4-1, part=Stirrup
          0.,           0.,        2300.
*End Instance
**  
*Instance, name=Stirrup-1-lin-5-1, part=Stirrup
          0.,           0.,        2100.
*End Instance
**  
*Instance, name=Stirrup-1-lin-6-1, part=Stirrup
          0.,           0.,        1900.
*End Instance
**  
*Instance, name=Stirrup-1-lin-7-1, part=Stirrup
          0.,           0.,        1700.
*End Instance
**  
*Instance, name=Stirrup-1-lin-8-1, part=Stirrup
          0.,           0.,        1500.
*End Instance
**  
*Instance, name=Stirrup-1-lin-9-1, part=Stirrup
          0.,           0.,        1300.
*End Instance
**  
*Instance, name=Stirrup-1-lin-10-1, part=Stirrup
          0.,           0.,        1100.
*End Instance
**  
*Instance, name=Stirrup-1-lin-11-1, part=Stirrup
          0.,           0.,         900.
*End Instance
**  
*Instance, name=Stirrup-1-lin-12-1, part=Stirrup
          0.,           0.,         700.
*End Instance
**  
*Instance, name=Stirrup-1-lin-13-1, part=Stirrup
          0.,           0.,         500.
*End Instance
**  
*Instance, name=Stirrup-1-lin-14-1, part=Stirrup
          0.,           0.,         300.
*End Instance
**  
*Instance, name=Stirrup-1-lin-15-1, part=Stirrup
          0.,           0.,         100.
*End Instance
**  
*Instance, name="Tensile Rebar-1-lin-2-1", part="Tensile Rebar"
        -65.,        -210.,        1500.
        -65.,        -210.,        1500.,         -65., -208.999999987312,        1500., 89.9999992730282
*End Instance
**  
*Instance, name="Tensile Rebar-1-lin-2-1-1", part="Tensile Rebar"
         65.,        -210.,        1500.
         65.,        -210.,        1500.,          65., -208.999999987312,        1500., 89.9999992730282
*End Instance
**  
*Instance, name=Support2-1, part=Support
       -100.,         350.,        1900.
       -100.,         350.,        1900.,        -100., 351.000000012688,        1900., 89.9999992730282
*End Instance
**  
*Instance, name=Support2-2, part=Support
       -100.,        -350.,        2900.
       -100.,        -350.,        2900., -99.2928932098417,        -350., 2900.70710679016,         180.
*End Instance
**  
*Instance, name=Support2-3, part=Support
       -100.,        -350.,         100.
       -100.,        -350.,         100., -99.2928932098417,        -350., 100.707106790158,         180.
*End Instance
**  
*Instance, name=Support2-1-lin-2-1, part=Support
       -100.,         350.,        1100.
       -100.,         350.,        1100.,        -100., 351.000000012688,        1100., 89.9999992730282
*End Instance
**  
*Instance, name="Comp Rebar-1", part="Comp Rebar"
         65.,         215.,        1500.
         65.,         215.,        1500.,          65., 216.000000012688,        1500., 89.9999992730282
*End Instance
**  
*Instance, name="Comp Rebar-1-lin-2-1", part="Comp Rebar"
        -65.,         215.,        1500.
        -65.,         215.,        1500.,         -65., 216.000000012688,        1500., 89.9999992730282
*End Instance
**  
*Nset, nset=_PickedSet65, internal, instance=Beam-1
   15,   16,   18,   19,   21,   22,   23,   24,  407,  408,  409,  410,  411,  412,  413,  414
  415,  416,  417,  418,  419,  420,  421,  422,  443,  444,  445,  446,  447,  448,  449,  450
  451,  452,  453,  454,  455,  456,  457,  458,  461,  462,  463,  464,  465,  466,  473,  474
  475,  476,  477,  478,  487,  488,  489,  490,  491,  492,  493,  494,  495,  496,  497,  498
  499,  500,  501,  502,  507,  508,  509,  510,  511,  512,  513,  514,  515,  516,  517,  518
  519,  520,  521,  522,  525,  526,  527,  528,  529,  530,  531,  532,  533,  534,  535,  536
 3689, 3690, 3691, 3692, 3693, 3694, 3695, 3696, 3697, 3698, 3699, 3700, 3701, 3702, 3703, 3704
 3705, 3706, 3707, 3708, 3709, 3710, 3711, 3712, 3713, 3714, 3715, 3716, 3717, 3718, 3719, 3720
 3721, 3722, 3723, 3724, 3725, 3726, 3727, 3728, 3729, 3730, 3731, 3732, 3733, 3734, 3735, 3736
 3737, 3738, 3739, 3740, 3741, 3742, 3743, 3744, 3745, 3746, 3747, 3748, 3749, 3750, 3751, 3752
 3753, 3754, 3755, 3756, 3757, 3758, 3759, 3760, 3761, 3762, 3763, 3764, 3765, 3766, 3767, 3768
 3769, 3770, 3771, 3772, 3773, 3774, 3775, 3776, 3777, 3778, 3779, 3780, 3781, 3782, 3783, 3784
 3873, 3874, 3875, 3876, 3877, 3878, 3879, 3880, 3881, 3882, 3883, 3884, 3885, 3886, 3887, 3888
 3889, 3890, 3891, 3892, 3893, 3894, 3895, 3896, 3897, 3898, 3899, 3900, 3901, 3902, 3903, 3904
 3905, 3906, 3907, 3908, 3909, 3910, 3911, 3912, 3913, 3914, 3915, 3916, 3917, 3918, 3919, 3920
 3921, 3922, 3923, 3924, 3925, 3926, 3927, 3928, 3929, 3930, 3931, 3932, 3933, 3934, 3935, 3936
 3937, 3938, 3939, 3940, 3941, 3942, 3943, 3944, 3945, 3946, 3947, 3948, 3949, 3950, 3951, 3952
 3953, 3954, 3955, 3956, 3957, 3958, 3959, 3960, 3961, 3962, 3963, 3964, 3965, 3966, 3967, 3968
*Elset, elset=_PickedSet65, internal, instance=Beam-1
 7175, 7176, 7177, 7178, 7179, 7180, 7181, 7182, 7183, 7184, 7185, 7186, 7187, 7188, 7189, 7190
 7191, 7226, 7227, 7228, 7229, 7230, 7231, 7232, 7233, 7234, 7235, 7236, 7237, 7238, 7239, 7240
 7241, 7242, 7277, 7278, 7279, 7280, 7281, 7282, 7283, 7284, 7285, 7286, 7287, 7288, 7289, 7290
 7291, 7292, 7293, 7328, 7329, 7330, 7331, 7332, 7333, 7334, 7335, 7336, 7337, 7338, 7339, 7340
 7341, 7342, 7343, 7344, 7379, 7380, 7381, 7382, 7383, 7384, 7385, 7386, 7387, 7388, 7389, 7390
 7391, 7392, 7393, 7394, 7395, 7430, 7431, 7432, 7433, 7434, 7435, 7436, 7437, 7438, 7439, 7440
 7441, 7442, 7443, 7444, 7445, 7446, 7481, 7482, 7483, 7484, 7485, 7486, 7487, 7488, 7489, 7490
 7491, 7492, 7493, 7494, 7495, 7496, 7497, 7532, 7533, 7534, 7535, 7536, 7537, 7538, 7539, 7540
 7541, 7542, 7543, 7544, 7545, 7546, 7547, 7548, 7583, 7584, 7585, 7586, 7587, 7588, 7589, 7590
 7591, 7592, 7593, 7594, 7595, 7596, 7597, 7598, 7599, 7634, 7635, 7636, 7637, 7638, 7639, 7640
 7641, 7642, 7643, 7644, 7645, 7646, 7647, 7648, 7649, 7650, 7685, 7686, 7687, 7688, 7689, 7690
 7691, 7692, 7693, 7694, 7695, 7696, 7697, 7698, 7699, 7700, 7701, 7736, 7737, 7738, 7739, 7740
 7741, 7742, 7743, 7744, 7745, 7746, 7747, 7748, 7749, 7750, 7751, 7752, 7787, 7788, 7789, 7790
 7791, 7792, 7793, 7794, 7795, 7796, 7797, 7798, 7799, 7800, 7801, 7802, 7803, 7838, 7839, 7840
 7841, 7842, 7843, 7844, 7845, 7846, 7847, 7848, 7849, 7850, 7851, 7852, 7853, 7854
*Nset, nset=_PickedSet68, internal, instance=Support2-1
   2,   3,   4,  16,  17,  18,  19,  20,  21,  22,  58,  59,  60,  72,  73,  74
  75,  76,  77,  78, 114, 115, 116, 128, 129, 130, 131, 132, 133, 134, 170, 171
 172, 184, 185, 186, 187, 188, 189, 190, 226, 227, 228, 240, 241, 242, 243, 244
 245, 246, 282, 283, 284, 296, 297, 298, 299, 300, 301, 302, 338, 339, 340, 352
 353, 354, 355, 356, 357, 358, 394, 395, 396, 408, 409, 410, 411, 412, 413, 414
 450, 451, 452, 464, 465, 466, 467, 468, 469, 470, 506, 507, 508, 520, 521, 522
 523, 524, 525, 526
*Elset, elset=_PickedSet68, internal, instance=Support2-1
   8,  12,  16,  20,  21,  25,  26,  27,  43,  51,  55,  59,  63,  64,  68,  69
  70,  86,  94,  98, 102, 106, 107, 111, 112, 113, 129, 137, 141, 145, 149, 150
 154, 155, 156, 172, 180, 184, 188, 192, 193, 197, 198, 199, 215, 223, 227, 231
 235, 236, 240, 241, 242, 258, 266, 270, 274, 278, 279, 283, 284, 285, 301, 309
 313, 317, 321, 322, 326, 327, 328, 344, 352, 356, 360, 364, 365, 369, 370, 371
 387,
*Nset, nset=_PickedSet74, internal, instance=Support2-2
   2,   3,   4,  16,  17,  18,  19,  20,  21,  22,  58,  59,  60,  72,  73,  74
  75,  76,  77,  78, 114, 115, 116, 128, 129, 130, 131, 132, 133, 134, 170, 171
 172, 184, 185, 186, 187, 188, 189, 190, 226, 227, 228, 240, 241, 242, 243, 244
 245, 246, 282, 283, 284, 296, 297, 298, 299, 300, 301, 302, 338, 339, 340, 352
 353, 354, 355, 356, 357, 358, 394, 395, 396, 408, 409, 410, 411, 412, 413, 414
 450, 451, 452, 464, 465, 466, 467, 468, 469, 470, 506, 507, 508, 520, 521, 522
 523, 524, 525, 526
*Nset, nset=_PickedSet74, internal, instance=Support2-3
   2,   3,   4,  16,  17,  18,  19,  20,  21,  22,  58,  59,  60,  72,  73,  74
  75,  76,  77,  78, 114, 115, 116, 128, 129, 130, 131, 132, 133, 134, 170, 171
 172, 184, 185, 186, 187, 188, 189, 190, 226, 227, 228, 240, 241, 242, 243, 244
 245, 246, 282, 283, 284, 296, 297, 298, 299, 300, 301, 302, 338, 339, 340, 352
 353, 354, 355, 356, 357, 358, 394, 395, 396, 408, 409, 410, 411, 412, 413, 414
 450, 451, 452, 464, 465, 466, 467, 468, 469, 470, 506, 507, 508, 520, 521, 522
 523, 524, 525, 526
*Elset, elset=_PickedSet74, internal, instance=Support2-2
   8,  12,  16,  20,  21,  25,  26,  27,  43,  51,  55,  59,  63,  64,  68,  69
  70,  86,  94,  98, 102, 106, 107, 111, 112, 113, 129, 137, 141, 145, 149, 150
 154, 155, 156, 172, 180, 184, 188, 192, 193, 197, 198, 199, 215, 223, 227, 231
 235, 236, 240, 241, 242, 258, 266, 270, 274, 278, 279, 283, 284, 285, 301, 309
 313, 317, 321, 322, 326, 327, 328, 344, 352, 356, 360, 364, 365, 369, 370, 371
 387,
*Elset, elset=_PickedSet74, internal, instance=Support2-3
   8,  12,  16,  20,  21,  25,  26,  27,  43,  51,  55,  59,  63,  64,  68,  69
  70,  86,  94,  98, 102, 106, 107, 111, 112, 113, 129, 137, 141, 145, 149, 150
 154, 155, 156, 172, 180, 184, 188, 192, 193, 197, 198, 199, 215, 223, 227, 231
 235, 236, 240, 241, 242, 258, 266, 270, 274, 278, 279, 283, 284, 285, 301, 309
 313, 317, 321, 322, 326, 327, 328, 344, 352, 356, 360, 364, 365, 369, 370, 371
 387,
*Nset, nset=_PickedSet78, internal, instance=Support2-1
   2,   3,   4,  16,  17,  18,  19,  20,  21,  22,  58,  59,  60,  72,  73,  74
  75,  76,  77,  78, 114, 115, 116, 128, 129, 130, 131, 132, 133, 134, 170, 171
 172, 184, 185, 186, 187, 188, 189, 190, 226, 227, 228, 240, 241, 242, 243, 244
 245, 246, 282, 283, 284, 296, 297, 298, 299, 300, 301, 302, 338, 339, 340, 352
 353, 354, 355, 356, 357, 358, 394, 395, 396, 408, 409, 410, 411, 412, 413, 414
 450, 451, 452, 464, 465, 466, 467, 468, 469, 470, 506, 507, 508, 520, 521, 522
 523, 524, 525, 526
*Nset, nset=_PickedSet78, internal, instance=Support2-1-lin-2-1
   2,   3,   4,  16,  17,  18,  19,  20,  21,  22,  58,  59,  60,  72,  73,  74
  75,  76,  77,  78, 114, 115, 116, 128, 129, 130, 131, 132, 133, 134, 170, 171
 172, 184, 185, 186, 187, 188, 189, 190, 226, 227, 228, 240, 241, 242, 243, 244
 245, 246, 282, 283, 284, 296, 297, 298, 299, 300, 301, 302, 338, 339, 340, 352
 353, 354, 355, 356, 357, 358, 394, 395, 396, 408, 409, 410, 411, 412, 413, 414
 450, 451, 452, 464, 465, 466, 467, 468, 469, 470, 506, 507, 508, 520, 521, 522
 523, 524, 525, 526
*Elset, elset=_PickedSet78, internal, instance=Support2-1
   8,  12,  16,  20,  21,  25,  26,  27,  43,  51,  55,  59,  63,  64,  68,  69
  70,  86,  94,  98, 102, 106, 107, 111, 112, 113, 129, 137, 141, 145, 149, 150
 154, 155, 156, 172, 180, 184, 188, 192, 193, 197, 198, 199, 215, 223, 227, 231
 235, 236, 240, 241, 242, 258, 266, 270, 274, 278, 279, 283, 284, 285, 301, 309
 313, 317, 321, 322, 326, 327, 328, 344, 352, 356, 360, 364, 365, 369, 370, 371
 387,
*Elset, elset=_PickedSet78, internal, instance=Support2-1-lin-2-1
   8,  12,  16,  20,  21,  25,  26,  27,  43,  51,  55,  59,  63,  64,  68,  69
  70,  86,  94,  98, 102, 106, 107, 111, 112, 113, 129, 137, 141, 145, 149, 150
 154, 155, 156, 172, 180, 184, 188, 192, 193, 197, 198, 199, 215, 223, 227, 231
 235, 236, 240, 241, 242, 258, 266, 270, 274, 278, 279, 283, 284, 285, 301, 309
 313, 317, 321, 322, 326, 327, 328, 344, 352, 356, 360, 364, 365, 369, 370, 371
 387,
*Nset, nset=_PickedSet83, internal, instance=Stirrup-1, generate
  1,  50,   1
*Nset, nset=_PickedSet83, internal, instance="Tensile Rebar-1", generate
   1,  117,    1
*Nset, nset=_PickedSet83, internal, instance=Stirrup-1-lin-3-1, generate
  1,  50,   1
*Nset, nset=_PickedSet83, internal, instance=Stirrup-1-lin-5-1, generate
  1,  50,   1
*Nset, nset=_PickedSet83, internal, instance=Stirrup-1-lin-13-1, generate
  1,  50,   1
*Nset, nset=_PickedSet83, internal, instance=Stirrup-1-lin-9-1, generate
  1,  50,   1
*Nset, nset=_PickedSet83, internal, instance=Stirrup-1-lin-7-1, generate
  1,  50,   1
*Nset, nset=_PickedSet83, internal, instance=Stirrup-1-lin-15-1, generate
  1,  50,   1
*Nset, nset=_PickedSet83, internal, instance=Stirrup-1-lin-11-1, generate
  1,  50,   1
*Nset, nset=_PickedSet83, internal, instance="Tensile Rebar-1-lin-2-1-1", generate
   1,  117,    1
*Nset, nset=_PickedSet83, internal, instance=Stirrup-1-lin-2-1, generate
  1,  50,   1
*Nset, nset=_PickedSet83, internal, instance=Stirrup-1-lin-6-1, generate
  1,  50,   1
*Nset, nset=_PickedSet83, internal, instance=Stirrup-1-lin-14-1, generate
  1,  50,   1
*Nset, nset=_PickedSet83, internal, instance=Stirrup-1-lin-10-1, generate
  1,  50,   1
*Nset, nset=_PickedSet83, internal, instance="Tensile Rebar-1-lin-2-1", generate
   1,  117,    1
*Nset, nset=_PickedSet83, internal, instance=Stirrup-1-lin-4-1, generate
  1,  50,   1
*Nset, nset=_PickedSet83, internal, instance=Stirrup-1-lin-8-1, generate
  1,  50,   1
*Nset, nset=_PickedSet83, internal, instance=Stirrup-1-lin-12-1, generate
  1,  50,   1
*Nset, nset=_PickedSet83, internal, instance="Comp Rebar-1", generate
   1,  105,    1
*Nset, nset=_PickedSet83, internal, instance="Comp Rebar-1-lin-2-1", generate
   1,  105,    1
*Elset, elset=_PickedSet83, internal, instance=Stirrup-1, generate
  1,  50,   1
*Elset, elset=_PickedSet83, internal, instance="Tensile Rebar-1", generate
   1,  116,    1
*Elset, elset=_PickedSet83, internal, instance=Stirrup-1-lin-3-1, generate
  1,  50,   1
*Elset, elset=_PickedSet83, internal, instance=Stirrup-1-lin-5-1, generate
  1,  50,   1
*Elset, elset=_PickedSet83, internal, instance=Stirrup-1-lin-13-1, generate
  1,  50,   1
*Elset, elset=_PickedSet83, internal, instance=Stirrup-1-lin-9-1, generate
  1,  50,   1
*Elset, elset=_PickedSet83, internal, instance=Stirrup-1-lin-7-1, generate
  1,  50,   1
*Elset, elset=_PickedSet83, internal, instance=Stirrup-1-lin-15-1, generate
  1,  50,   1
*Elset, elset=_PickedSet83, internal, instance=Stirrup-1-lin-11-1, generate
  1,  50,   1
*Elset, elset=_PickedSet83, internal, instance="Tensile Rebar-1-lin-2-1-1", generate
   1,  116,    1
*Elset, elset=_PickedSet83, internal, instance=Stirrup-1-lin-2-1, generate
  1,  50,   1
*Elset, elset=_PickedSet83, internal, instance=Stirrup-1-lin-6-1, generate
  1,  50,   1
*Elset, elset=_PickedSet83, internal, instance=Stirrup-1-lin-14-1, generate
  1,  50,   1
*Elset, elset=_PickedSet83, internal, instance=Stirrup-1-lin-10-1, generate
  1,  50,   1
*Elset, elset=_PickedSet83, internal, instance="Tensile Rebar-1-lin-2-1", generate
   1,  116,    1
*Elset, elset=_PickedSet83, internal, instance=Stirrup-1-lin-4-1, generate
  1,  50,   1
*Elset, elset=_PickedSet83, internal, instance=Stirrup-1-lin-8-1, generate
  1,  50,   1
*Elset, elset=_PickedSet83, internal, instance=Stirrup-1-lin-12-1, generate
  1,  50,   1
*Elset, elset=_PickedSet83, internal, instance="Comp Rebar-1", generate
   1,  104,    1
*Elset, elset=_PickedSet83, internal, instance="Comp Rebar-1-lin-2-1", generate
   1,  104,    1
*Nset, nset=_PickedSet84, internal, instance=Beam-1, generate
     1,  14400,      1
*Elset, elset=_PickedSet84, internal, instance=Beam-1, generate
     1,  11781,      1
** Constraint: Constraint-4
*Embedded Element, host elset=_PickedSet84
_PickedSet83
*End Assembly
** 
** ELEMENT CONTROLS
** 
*Section Controls, name=EC-1, ELEMENT DELETION=YES
1., 1., 1.
*Amplitude, name=Amp-1
             0.,              0.,             10.,              1.
** 
** MATERIALS
** 
*Material, name=Concrete_Damage
*Density
 2.5e-09,
*Elastic
20111., 0.2
*Concrete Damaged Plasticity
40.,    0.1,   1.16, 0.6667,     0.
*Concrete Compression Hardening
 24.5,          0.
 29.1, 0.000638796
 26.6,  0.00156087
 22.3,  0.00257523
 18.4,  0.00357331
 15.1,  0.00453257
 12.7,  0.00545631
 11.2,  0.00613054
  7.5,  0.00820387
   5.,   0.0103282
*Concrete Tension Stiffening
  3.6,          0.
 2.94, 0.000132818
 2.25, 0.000367127
 1.94, 0.000482791
 1.62, 0.000598454
 1.08, 0.000925081
 0.73,  0.00114291
  0.5,  0.00515414
*Concrete Compression Damage
   0.,          0.
   0., 1.98359e-06
   0., 6.69643e-05
   0., 0.000638796
 0.08,  0.00156087
 0.23,  0.00257523
 0.37,  0.00357331
 0.48,  0.00453257
 0.56,  0.00545631
 0.62,  0.00613054
 0.74,  0.00820387
 0.83,   0.0103282
*Concrete Tension Damage
   0.,          0.
 0.18, 0.000132818
 0.38, 0.000367127
 0.46, 0.000482791
 0.55, 0.000598454
  0.7, 0.000925081
 0.81,  0.00114291
 0.86,  0.00515414
*Material, name="Steel Elastic"
*Density
 7.85e-09,
*Elastic
200000., 0.3
*Material, name=Steel_Rebar
*Density
 8e-09,
*Elastic
200000., 0.3
*Plastic
372.,   0.
509., 0.28
** 
** INTERACTION PROPERTIES
** 
*Surface Interaction, name=IntProp-1
*Friction
 0.35,
*Surface Behavior, pressure-overclosure=HARD
** 
** BOUNDARY CONDITIONS
** 
** Name: BC-1 Type: Symmetry/Antisymmetry/Encastre
*Boundary
_PickedSet74, PINNED
** Name: BC-3 Type: Displacement/Rotation
*Boundary
_PickedSet65, 1, 1
** 
** INTERACTIONS
** 
** Interaction: Int-1
*Contact, op=NEW
*Contact Inclusions, ALL EXTERIOR
*Contact Property Assignment
 ,  , IntProp-1
** ----------------------------------------------------------------
** 
** STEP: Loading-Step
** 
*Step, name=Loading-Step, nlgeom=YES
*Dynamic, Explicit
, 10.
*Bulk Viscosity
0.06, 1.2
** 
** BOUNDARY CONDITIONS
** 
** Name: BC-2 Type: Displacement/Rotation
*Boundary, amplitude=Amp-1
_PickedSet78, 1, 1
_PickedSet78, 2, 2, -20.
_PickedSet78, 3, 3
** 
** OUTPUT REQUESTS
** 
*Restart, write, number interval=1, time marks=NO
** 
** FIELD OUTPUT: F-Output-1
** 
*Output, field, time interval=0.2
*Node Output
A, RF, U, V
*Element Output, directions=YES
DAMAGEC, DAMAGESHR, DAMAGET, LE, PE, PEEQ, S, STATUS
** 
** HISTORY OUTPUT: H-Output-1
** 
*Output, history, variable=PRESELECT
*End Step
